data_image0
_chemical_formula_structural       OH2
_chemical_formula_sum              "O1 H2"
_cell_length_a       4.0
_cell_length_b       5.526478
_cell_length_c       4.596309
_cell_angle_alpha    90.0
_cell_angle_beta     90.0
_cell_angle_gamma    90.0

_space_group_name_H-M_alt    "P 1"
_space_group_IT_number       1

loop_
  _space_group_symop_operation_xyz
  'x, y, z'

loop_
  _atom_site_type_symbol
  _atom_site_label
  _atom_site_symmetry_multiplicity
  _atom_site_fract_x
  _atom_site_fract_y
  _atom_site_fract_z
  _atom_site_occupancy
  O   O1        1.0  0.5  0.5000000000000001  0.5648682453681856  1.0000
  H   H1        1.0  0.5  0.6381058605498837  0.4351317546318143  1.0000
  H   H2        1.0  0.5  0.3618941394501164  0.4351317546318143  1.0000
